data_image0
_chemical_formula_structural       Na10
_chemical_formula_sum              "Na10"
_cell_length_a       4.19992
_cell_length_b       4.19992
_cell_length_c       42.8996
_cell_angle_alpha    90
_cell_angle_beta     90
_cell_angle_gamma    90

_space_group_name_H-M_alt    "P 1"
_space_group_IT_number       1

loop_
  _space_group_symop_operation_xyz
  'x, y, z'

loop_
  _atom_site_type_symbol
  _atom_site_label
  _atom_site_symmetry_multiplicity
  _atom_site_fract_x
  _atom_site_fract_y
  _atom_site_fract_z
  _atom_site_occupancy
  Na  Na1       1.0  0.00000  0.00000  0.27972  1.0000
  Na  Na2       1.0  0.50000  0.50000  0.32867  1.0000
  Na  Na3       1.0  0.00000  0.00000  0.37762  1.0000
  Na  Na4       1.0  0.50000  0.50000  0.42657  1.0000
  Na  Na5       1.0  0.00000  0.00000  0.47552  1.0000
  Na  Na6       1.0  0.50000  0.50000  0.52448  1.0000
  Na  Na7       1.0  0.00000  0.00000  0.57343  1.0000
  Na  Na8       1.0  0.50000  0.50000  0.62238  1.0000
  Na  Na9       1.0  0.00000  0.00000  0.67133  1.0000
  Na  Na10      1.0  0.50000  0.50000  0.72028  1.0000
